Version 4
SHEET 1 1404 812
WIRE 592 -624 592 -656
WIRE 608 -624 592 -624
WIRE 864 -624 864 -656
WIRE 880 -624 864 -624
WIRE 608 -576 608 -624
WIRE 608 -576 592 -576
WIRE 880 -576 880 -624
WIRE 880 -576 864 -576
WIRE 544 -544 528 -544
WIRE 816 -544 800 -544
WIRE -160 -464 -416 -464
WIRE -32 -464 -32 -512
WIRE -32 -464 -160 -464
WIRE 64 -464 64 -512
WIRE 128 -464 64 -464
WIRE 192 -464 192 -512
WIRE 192 -464 128 -464
WIRE 288 -464 288 -512
WIRE 352 -464 288 -464
WIRE 528 -464 528 -544
WIRE 528 -464 384 -464
WIRE 592 -464 592 -528
WIRE 720 -464 592 -464
WIRE 800 -464 800 -544
WIRE 800 -464 720 -464
WIRE 864 -464 864 -528
WIRE 944 -464 864 -464
WIRE 960 -464 944 -464
WIRE 592 -448 592 -464
WIRE 864 -448 864 -464
WIRE -416 -432 -416 -464
WIRE -32 -416 -32 -464
WIRE 64 -416 64 -464
WIRE 192 -416 192 -464
WIRE 288 -416 288 -464
WIRE 608 -400 592 -400
WIRE 880 -400 864 -400
WIRE 528 -368 528 -464
WIRE 544 -368 528 -368
WIRE 800 -368 800 -464
WIRE 816 -368 800 -368
WIRE 608 -352 608 -400
WIRE 608 -352 592 -352
WIRE 880 -352 880 -400
WIRE 880 -352 864 -352
WIRE -480 -336 -480 -512
WIRE -416 -336 -416 -352
WIRE -416 -336 -480 -336
WIRE 592 -304 592 -352
WIRE 864 -304 864 -352
WIRE -480 -288 -480 -336
WIRE -448 -288 -480 -288
WIRE -304 -288 -368 -288
WIRE -288 -288 -304 -288
WIRE -224 -288 -288 -288
WIRE -144 -288 -144 -336
WIRE -304 -272 -304 -288
WIRE 352 -224 352 -464
WIRE 944 -224 944 -464
WIRE 944 -224 352 -224
WIRE 128 -208 128 -464
WIRE 384 -208 384 -464
WIRE 384 -208 128 -208
WIRE -480 -144 -480 -288
WIRE -448 -144 -480 -144
WIRE -304 -144 -304 -192
WIRE -304 -144 -368 -144
WIRE -272 -144 -304 -144
WIRE -224 -144 -272 -144
WIRE -144 -144 -144 -288
WIRE -480 -80 -480 -144
FLAG -480 -80 0
FLAG -480 -592 VDD
FLAG -144 -336 VDD
FLAG -288 -288 CLKP
FLAG -272 -144 CLKN
FLAG 592 -656 VDD
FLAG 592 -304 0
FLAG 864 -656 VDD
FLAG 864 -304 0
FLAG 960 -464 Q
FLAG 720 -464 QP
FLAG 16 -416 0
FLAG 16 -512 VDD
FLAG -16 -560 CLKN
FLAG 48 -368 CLKP
FLAG 240 -416 0
FLAG 240 -512 VDD
FLAG 208 -560 CLKP
FLAG 272 -368 CLKN
FLAG -160 -464 D
SYMBOL voltage -480 -608 R0
WINDOW 123 0 0 Left 0
WINDOW 39 0 0 Left 0
SYMATTR InstName VDD
SYMATTR Value 1
SYMBOL voltage -416 -448 R0
WINDOW 3 -690 51 Left 2
WINDOW 123 0 0 Left 0
WINDOW 39 0 0 Left 0
SYMATTR Value PWL(0 1 0.45n 1 4n 1 4.009999999n 0.488999999999 )
SYMATTR InstName V2
SYMBOL voltage -304 -288 R0
WINDOW 3 -580 51 Left 2
WINDOW 123 0 0 Left 0
WINDOW 39 0 0 Left 0
SYMATTR Value PULSE(-1 1 0 10p 10p 2n 4n 2)
SYMATTR InstName V3
SYMBOL res -352 -304 R90
WINDOW 0 0 56 VBottom 2
WINDOW 3 32 56 VTop 2
SYMATTR InstName R1
SYMATTR Value 10
SYMBOL res -128 -304 R90
WINDOW 0 0 56 VBottom 2
WINDOW 3 32 56 VTop 2
SYMATTR InstName R2
SYMATTR Value 10
SYMBOL res -352 -160 R90
WINDOW 0 0 56 VBottom 2
WINDOW 3 32 56 VTop 2
SYMATTR InstName R3
SYMATTR Value 10
SYMBOL res -128 -160 R90
WINDOW 0 0 56 VBottom 2
WINDOW 3 32 56 VTop 2
SYMATTR InstName R4
SYMATTR Value 10
SYMBOL pmos4 544 -624 R0
WINDOW 0 -99 34 Left 2
WINDOW 3 -99 58 Left 2
SYMATTR InstName M1
SYMATTR Value P_50n
SYMATTR Value2 l={pL} w={pW}
SYMBOL nmos4 544 -448 R0
WINDOW 0 -108 38 Left 2
WINDOW 3 -107 68 Left 2
SYMATTR InstName M2
SYMATTR Value N_50n
SYMATTR Value2 l={nL} w={nW}
SYMBOL pmos4 816 -624 R0
WINDOW 0 -99 34 Left 2
WINDOW 3 -99 58 Left 2
SYMATTR InstName M3
SYMATTR Value P_50n
SYMATTR Value2 l={pL} w={pW}
SYMBOL nmos4 816 -448 R0
WINDOW 0 -108 38 Left 2
WINDOW 3 -107 68 Left 2
SYMATTR InstName M4
SYMATTR Value N_50n
SYMATTR Value2 l={nL} w={nW}
SYMBOL pmos4 64 -560 R90
WINDOW 0 -45 13 Left 2
WINDOW 3 -72 39 Left 2
SYMATTR InstName M5
SYMATTR Value P_50n
SYMATTR Value2 l={pL} w={pW}
SYMBOL nmos4 -32 -368 R270
WINDOW 0 -55 -4 Left 2
WINDOW 3 -85 25 Left 2
SYMATTR InstName M6
SYMATTR Value N_50n
SYMATTR Value2 l={nL} w={nW}
SYMBOL pmos4 288 -560 R90
WINDOW 0 -45 13 Left 2
WINDOW 3 -72 39 Left 2
SYMATTR InstName M7
SYMATTR Value P_50n
SYMATTR Value2 l={pL} w={pW}
SYMBOL nmos4 192 -368 R270
WINDOW 0 -55 -4 Left 2
WINDOW 3 -85 25 Left 2
SYMATTR InstName M8
SYMATTR Value N_50n
SYMATTR Value2 l={nL} w={nW}
TEXT 1064 -432 Left 2 !.include cmosedu_models.txt
TEXT 1064 -408 Left 2 !.tran 0 10n 0 0.5p
TEXT 1064 -344 Left 2 !.param pL = 50n
TEXT 1064 -312 Left 2 !.param pW=1u
TEXT 1064 -280 Left 2 !.param nL =50n
TEXT 1064 -248 Left 2 !.param nW=500n
TEXT 1064 -376 Left 2 ;0.4900766000980979
TEXT -808 -344 Left 2 ;0.488999999999
